Version 4
SHEET 1 1076 680
WIRE 496 -16 416 -16
WIRE 608 -16 560 -16
WIRE 416 80 416 -16
WIRE 496 80 416 80
WIRE 608 80 608 -16
WIRE 608 80 576 80
WIRE 688 80 608 80
WIRE 880 80 688 80
WIRE 1056 80 960 80
WIRE 1056 96 1056 80
WIRE 112 128 16 128
WIRE 416 128 416 80
WIRE 416 128 352 128
WIRE 16 160 16 128
WIRE 416 192 416 128
WIRE 496 192 416 192
WIRE 416 208 416 192
WIRE 480 224 416 224
WIRE 496 224 496 192
WIRE 560 224 496 224
WIRE 688 224 688 80
WIRE 688 224 624 224
WIRE 480 256 480 224
WIRE 560 256 480 256
WIRE 576 256 560 256
WIRE 16 288 16 240
WIRE 112 288 16 288
WIRE 400 288 352 288
WIRE 416 288 416 224
WIRE 416 288 400 288
FLAG -112 512 3.3V
FLAG -112 592 0
FLAG 400 368 0
FLAG 1056 160 0
FLAG 560 192 3.3V
FLAG 624 256 3.3V
FLAG 624 192 0
SYMBOL res 208 112 R90
WINDOW 0 0 56 VBottom 2
WINDOW 3 32 56 VTop 2
SYMATTR InstName R1
SYMATTR Value 560k
SYMBOL res 288 112 R90
WINDOW 0 0 56 VBottom 2
WINDOW 3 32 56 VTop 2
SYMATTR InstName R2
SYMATTR Value 560k
SYMBOL res 368 112 R90
WINDOW 0 0 56 VBottom 2
WINDOW 3 32 56 VTop 2
SYMATTR InstName R3
SYMATTR Value 560k
SYMBOL res 208 272 R90
WINDOW 0 0 56 VBottom 2
WINDOW 3 32 56 VTop 2
SYMATTR InstName R4
SYMATTR Value 560k
SYMBOL res 288 272 R90
WINDOW 0 0 56 VBottom 2
WINDOW 3 32 56 VTop 2
SYMATTR InstName R5
SYMATTR Value 560k
SYMBOL res 368 272 R90
WINDOW 0 0 56 VBottom 2
WINDOW 3 32 56 VTop 2
SYMATTR InstName R6
SYMATTR Value 560k
SYMBOL res 384 272 R0
SYMATTR InstName R7
SYMATTR Value 10k
SYMBOL res 592 64 R90
WINDOW 0 0 56 VBottom 2
WINDOW 3 32 56 VTop 2
SYMATTR InstName R8
SYMATTR Value 10k
SYMBOL voltage -112 496 R0
WINDOW 123 0 0 Left 0
WINDOW 39 0 0 Left 0
SYMATTR InstName V1
SYMATTR Value 3.3
SYMBOL voltage 16 144 R0
WINDOW 123 24 124 Left 2
WINDOW 39 0 0 Left 0
SYMATTR InstName AC
SYMATTR Value AC 1
SYMBOL cap 1072 160 R180
WINDOW 0 24 56 Left 2
WINDOW 3 24 8 Left 2
SYMATTR InstName C2
SYMATTR Value 100n
SYMBOL res 976 64 R90
WINDOW 0 0 56 VBottom 2
WINDOW 3 32 56 VTop 2
SYMATTR InstName R9
SYMATTR Value 100
SYMBOL cap 496 0 R270
WINDOW 0 32 32 VTop 2
WINDOW 3 0 32 VBottom 2
SYMATTR InstName C1
SYMATTR Value 1n
SYMBOL AutoGenerated\\MAX4238 592 224 R0
SYMATTR InstName U1
TEXT 38 -32 Left 2 !.ac dec 100 10 100000
